<?xml version="1.0" encoding="UTF-8"?>

<!-- generated on 08/08/22 22:30:54 by Eclipse SUMO duarouter Version 1.7.0
<configuration xmlns:xsi="http://www.w3.org/2001/XMLSchema-instance" xsi:noNamespaceSchemaLocation="http://sumo.dlr.de/xsd/duarouterConfiguration.xsd">

    <input>
        <net-file value=".\osm.net.xml"/>
        <route-files value="trip_19.xml"/>
    </input>

    <output>
        <output-file value="osm.rou.xml"/>
        <alternatives-output value="osm.rou.alt.xml"/>
    </output>

    <time>
        <end value="600.0"/>
    </time>

</configuration>
-->

<routes xmlns:xsi="http://www.w3.org/2001/XMLSchema-instance" xsi:noNamespaceSchemaLocation="http://sumo.dlr.de/xsd/routes_file.xsd">
    <person id="0" depart="0.00">
        <walk edges="378331075#1 183895331#1 26600610#1 -378331046#1 394382781#1 -392752140#1 -392752140#0 -351819311#2 -351819311#1 -26600611#0 26600611#1 -26600611#2 26600611#3 -26600611#4 908429169#1 908429170#3"/>
    </person>
    <person id="1" depart="0.00">
        <walk edges="448710674#2 -448710674#1 -448710674#0 183895293#1 -914629934 -337111077#3 172670186#4 -172670186#5 -172670186#6 -518705249#1 -518705249#2 -518705249#3 -518705249#4 -518705249#5 -518705249#6 -518705249#7 -518705249#8 -518705249#9 810622960#1 810622960#0 -218975372#3 -218975372#4 -218975372#6 -218975372#7 -218975372#10 -218975372#11 560435745 218975374#0 563109702#5"/>
    </person>
    <person id="2" depart="0.00">
        <walk edges="351823752#10 803710521#4 807801812 803710520#3 803710520#2 803710520#1 803710520#0 -351823753#1 -351823753#2 -351823754#1 518705243#3 518705243#1 -379556014#1 416457251#1 416457253 379556022#2 379556022#1 -379556022#0 -379555977#1"/>
    </person>
    <person id="3" depart="0.00">
        <walk edges="448205553#0 448205553#1 448205553#2 448205553#3 803623215#0 804525735#1 804525732#1 804525734#1 944932588#0 818753472#6 944932588#15"/>
    </person>
    <person id="4" depart="0.00">
        <walk edges="816482202#1 37402625#5 183895346#1 183895347#8 183895347#7 183895347#6 183895347#5 183895347#4 183895347#3 -183895347#1 -183895347#0 218975372#0 810622962#1 810622961#1 810622960#1 -518705249#9 -518705249#8 -518705249#7 -518705249#6 -518705249#5 -518705249#4 -518705249#3 -518705249#2 -518705249#1 -172670186#6 -172670186#5 172670186#4 -337111077#3 -914629934 183895293#1 -448710674#0 -448710674#1 -448710674#2 -448710674#3 448710674#4 -448710674#5 908429171#1 908429171#2 -183895293#7 183895293#8 923278831#4 923278831#3 923278831#2 923278835 923278834 923278828#4 923278828#5 923278827 923278828#0 923278828#1 923278828#2 923278837"/>
    </person>
    <person id="5" depart="0.01">
        <walk edges="-172672023#0 518705249#3 -518705249#2 -518705249#1 -172670186#6 -172670186#5 172670186#4 -337111077#3 -914629934 183895293#1 -448710674#0 -448710674#1 -448710674#2 -448710674#3 448710674#4 -448710674#5 908429171#1"/>
    </person>
    <person id="6" depart="0.01">
        <walk edges="26628718#3 -803044659#1 -803044659#0 803044658 -802936063#2 -802936063#1 -448705123#0 802936062#1 802936062#0 -792411486#3 792411486#2 -792411486#1 -792411486#0 -792411485#3 -792411485#2 -792411485#1 -792411485#0 -337127948#3 -337127948#2 -337127948#1 952901543#1 952901543#2 -183063123#4 -394382774#2 -394382774#1 394382780 392747238#1 392747238#0 332096194#4 815146780"/>
    </person>
    <person id="7" depart="0.01">
        <walk edges="-379558049#2 -448705118#2 -448705118#3 -448705118#5 -448705118#6 218975374#0 560435745 -218975372#11 -218975372#10 -218975372#7 -218975372#6 -218975372#4 218975372#3 218975372#1 218975372#0 183895331#10 183895331#9 183895331#8 183895331#7 183895331#6 183895331#5 183895331#4 183895331#3 183895331#2 183895331#1 183895331#0 518705248#2 518705248#1 183895333#1 393225255#1"/>
    </person>
    <person id="8" depart="0.01">
        <walk edges="-378331050#4 337111080#3 337111080#2 -337111081#0 337111081#1 337111081#2 183895344#5 816482164#0 816482156#2 816482156#1 816482159#1 518705243#7 -518705243#6 -518705243#5 -518705243#4 -518705243#3 26269734#1 -379603826#2"/>
    </person>
    <person id="9" depart="0.01">
        <walk edges="803623203#1 814407835#1 815169354#0 787341285 818753467#0 -183063999#3 818753466#0 815146775 448208836#3 -448208836#2 -807801798#1 807801798#0 448205913#0 792411487 -792411485#0 -337127948#3 -337127948#2 -337127948#1 -183063123#2 -183063123#3"/>
    </person>
    <person id="10" depart="0.01">
        <walk edges="-394382781#1 816482163#3 875533637 183895338#0 183895332#0 518705248#2 183895339#5 183895339#4 -37401829#1"/>
    </person>
    <person id="11" depart="0.01">
        <walk edges="-183895293#1 -448710674#0 -448710674#1 -448710674#2 -448710674#3 448710674#4 -448710674#5 908429171#1 908429171#2 -183895293#7 183895293#8 -183895293#9 -183895293#10"/>
    </person>
    <person id="13" depart="0.01">
        <walk edges="923278836#5 923278837 923278828#2 923278828#1 923278828#0 923278827 923278828#5 923278828#4 923278834 923278835 923278831#2 923278831#3 923278831#4 -183895293#9 -183895293#10 -183895293#11 -183895293#12 -179610248#1 179610248#2 179610248#3 179610248#4 -179610248#5 -179610248#6 -179610248#7 179610248#8 448713866#5 -448713866#4 -448713866#3 448713866#1 448713866#0 -26628718#9 -26628718#8 -26628718#7 -26628718#6 820818753#6 -820818753#5 -820818753#4 -820818753#3 -820818753#1 -183063999#5 -183063999#3 818753467#1 815146776#1 815146776#2 815146776#3 815146776#4 815146776#5 815146776#6 815146776#7"/>
    </person>
    <person id="14" depart="0.01">
        <walk edges="-332080693 -332080699#2 332080699#1 332080699#0 448713867#0 -179610248#10 179610248#8 -179610248#7 -179610248#6 -179610248#5 179610248#4 179610248#3 179610248#2 -179610248#1 -183895293#13 448713871#1 910329307#0"/>
    </person>
    <person id="15" depart="0.02">
        <walk edges="379603742 -183521082#3 -26268518#3 379603806#0 379603806#1 183521166#1 183521166#2 26269734#1 -518705243#3 -518705243#4 -518705243#5 -518705243#6 -518705243#7 -518705243#8 -518705249#1 -518705249#2 -518705249#3 -518705249#4 -518705249#5 -518705249#6 -518705249#7 392747236#1 864013671#0 864013671#1 864013671#2 944932553#4 183895297#0 923278818#0 818753473#7 944932588#1 944932588#0 818753472#7 815146776#8 815146776#7 815146776#6 815146776#5 815146776#4 815146776#3 860888136#1 807198495#0"/>
    </person>
    <person id="16" depart="0.02">
        <walk edges="392752497#2 392752497#1 802936058#2 908429169#0 -26600611#4 26600611#3 -26600611#2 394374381#1 394374380#1 394374380#0 394374378#0"/>
    </person>
    <person id="17" depart="0.02">
        <walk edges="518705248#1 518705248#2 183895332#0 183895338#0 875533637 816482163#3 183895344#2 183895344#3 183895344#4 183895344#5 183895344#6 -172670186#6 -172670186#5 172670186#4 -337111077#3 -914629934 183895293#1 -448710674#0 -448710674#1 -448710674#2"/>
    </person>
    <person id="18" depart="0.02">
        <walk edges="560435745 -218975372#11 -218975372#10 183895288#1 448204959 810622954#0 804525734#0 804525734#1 804525732#1 804525735#1 803623215#0 803623215#1 803623215#2 803623215#3 803623215#4 803623215#5 803623215#6 819103571#0"/>
    </person>
    <person id="19" depart="0.02">
        <walk edges="807058732#3 807058732#2 807058732#1 26600611#5 -26600611#4 26600611#3 -26600611#2 26600611#1 -26600611#0 -351819311#1 -351819311#2 -392752140#0 -392752140#1 -394382781#1 378331046#1 -26600610#1 378331065#0 378331065#1 -793763774#0 -378331042#0 -37401829#5 -37401829#6 -37401829#7 -378331060#4"/>
    </person>
    <person id="20" depart="0.02">
        <walk edges="-378331050#3 -378331050#4 -378331050#5 378331078#0 954536931#0 954536931#1 -954536930 378331080#1 518705249#7 518705249#8 810622967#0 810622966#1 810622968#1 810622969 -183895331#10 183895347#0 183895347#1 183895347#3 183895347#4 183895347#5 183895347#6 183895347#7 183895347#8 183895346#1 37402625#5 37402625#4"/>
    </person>
    <person id="21" depart="0.02">
        <walk edges="-172670186#3 -172670186#4 172670186#5 172670186#6 -518705243#8 -518705243#7 -518705243#6 26628719#1 26628719#0 914341255"/>
    </person>
    <person id="22" depart="0.02">
        <walk edges="218975372#0 218975372#1 218975372#3 -218975372#4 -218975372#6 183895287 810622955 814407838#12 814407838#11 814407838#10 814407838#9 183063999#0 818753468#1 815146776#4 815146776#3 815146776#2 815146776#1 818753467#1 -183063999#3 -183063999#5 -820818753#1 -820818753#3 -820818753#4 -820818753#5 -820818753#6"/>
    </person>
    <person id="23" depart="0.02">
        <walk edges="-392750636#3 -392750636#2 392750636#0 -351819311#4 -351819311#3 -392752140#0 -392752140#1 -394382781#1 378331046#1 -26600610#1 378331065#0 378331065#1 -793763774#0 -378331042#0 -37401829#5 394282836#1"/>
    </person>
    <person id="24" depart="0.02">
        <walk edges="37401829#3 -793763774#1 793763774#0 378331065#1 378331065#0 -26600610#1 378331046#1 -394382781#1 -392752140#1 -392752140#0 -351819311#3 -351819311#4 392750636#0 -392750636#2 -435327108#0 435327110#0 435327110#1 435327110#2 435327110#3 807801808"/>
    </person>
    <person id="25" depart="0.03">
        <walk edges="-393234305#0 -183895293#11 -183895293#10 -183895293#9 183895293#8 -183895293#7 908429171#2 908429171#1 -448710674#5 448710674#4 -448710674#3 -448710674#2 -448710674#1 -448710674#0 183895293#1 -183895293#0 914341256#0 914341256#1 914341257#2 914341257#1 914341257#0 -26600611#10 -26600611#9 -26600611#8 26600611#5 -26600611#4 26600611#3 -26600611#2 394374381#1 394374380#1 394374380#0 802936059 828744489 828744488#2 807801803#2 807801807#2"/>
    </person>
    <person id="26" depart="0.03">
        <walk edges="-379558039#0 379558034 -379557990#2 379557990#3 379557990#4 379557990#5 183895347#4 183895347#3 183895347#1 183895347#0 183895331#10 183895331#9 183895331#8 183895331#7 -183895331#6 -183895331#5 -183895331#4 -183895331#3 -183895331#2 816482163#5 26600610#1 -378331046#1 394382781#1 -392752140#1 803710537 -351819311#6 -351819311#7 -351819311#9 -471735939#1"/>
    </person>
    <person id="27" depart="0.03">
        <walk edges="183895293#6 -448710674#6 -448710674#5 448710674#4 -448710674#3 -448710674#2 -448710674#1 -448710674#0 183895293#1 -914629934 -337111077#3 172670186#4 -172670186#5 -172670186#6 -518705249#1 -518705249#2 518705249#3 518705249#4 518705249#5 -954536929#1 -378331080#0 378331068#0 378331068#1 183895331#7"/>
    </person>
    <person id="28" depart="0.03">
        <walk edges="923278844 -179610248#7 179610248#8 448713866#5 -448713866#4 -448713866#3 448713866#1 448713866#0 -26628718#9 -26628718#8 -26628718#7 -26628718#6 875533630#1 814407837#1 814407837#2 814407837#3 802936062#1 -448705123#0 837483267 837483266 802936065#1 815169352 908429173"/>
    </person>
    <person id="29" depart="0.03">
        <walk edges="860888126#1 860888126#0 815146776#7 815146776#6 815146776#5 815146776#4 815146776#3 815146776#2 815146776#1 818753467#1 818753467#0 787341285 815169354#0 814407835#1 803623203#1 803623203#0 -803623201#0 -803623200#1 803623200#0 -802936066#2 -448705124#2 448705124#0"/>
    </person>
    <person id="30" depart="0.03">
        <walk edges="816482170#1 -26600611#10 914341257#0 914341257#1 914341257#2 914341256#1 914341256#0 -183895293#0 183895293#1 448710674#0"/>
    </person>
    <person id="31" depart="0.03">
        <walk edges="806701039#0 952901543#2 -183063123#4 -394382774#2 -394382774#1 -394382774#0 332080701 332080691#3 337111077#0 337111077#3 -914629934 183895293#1 -448710674#0 -448710674#1 -448710674#2 -448710674#3 -448711034#0 448711034#1"/>
    </person>
    <person id="32" depart="0.03">
        <walk edges="806701038 -448713872#0 -392740613#7 -183063123#0 -183063123#1 952901543#1 952901543#2 -183063123#4 -394382774#2 -394382774#1 -394382774#0 332080701 332080691#2 -332080691#1 -332080691#0 -518705249#3 337111080#0 337111080#1 337111080#2 337111080#3 337111080#4 -779467169 -378331076#1"/>
    </person>
    <person id="33" depart="0.03">
        <walk edges="-379555984#1 183895334 183895337 183895343 -394382781#1 -378331046#1 -378331046#2 -378331046#3 -378331046#4 337111080#4 337111080#3 337111080#2 337111080#1 337111080#0 -518705249#3 -332080691#0 -332080691#1 332080691#2 332080701 -394382774#0 -394382774#1 -394382774#2 -183063123#4 952901543#2 952901543#1 -337127948#1 -337127948#2 -337127948#3 -792411485#0 -792411485#1 -792411485#2 -792411485#3 807058729 807058730#0 807058731 815146779 803623198#1 803623199#0"/>
    </person>
    <person id="34" depart="0.03">
        <walk edges="379553738#2 -379553738#1 -379553738#0 26628718#3 -803044659#1 -803044659#0 803044658 -802936063#2 -802936063#1 -448705123#0 802936062#1 802936062#0 -792411486#3 792411486#2 -792411486#1 -792411486#0 -792411485#3 -792411485#2 -792411485#1 -792411485#0 -337127948#3 -337127948#2 -337127948#1 952901543#1 952901543#2 -183063123#4 -394382774#2 -394382774#1 -394382774#0 332080701 332080691#2 -332080691#1 -332080691#0 -518705249#3 337111080#0 337111080#1 337111080#2 337111080#3 337111080#4 -378331046#4 -378331046#3 -378331046#2 -378331046#1 -394382781#1 183895343 -392752139"/>
    </person>
    <person id="35" depart="0.04">
        <walk edges="379558026#0 -379558007#5 -379558007#7 -379558007#8 183895347#6 183895347#5 183895347#4 183895347#3 183895347#1 183895347#0 -183895331#10 810622969 810622968#1 810622966#1 810622967#0 518705249#8 518705249#7 518705249#6 518705249#5 518705249#4 518705249#3 518705249#2 518705249#0 518705243#8 518705243#7 518705243#6 518705243#5 518705243#4 518705243#3 518705243#1 -379556014#1 416457251#1 -416457250 702362025 416456955#0"/>
    </person>
    <person id="36" depart="0.04">
        <walk edges="814407837#5 814407837#4 802936062#1 -448705123#0 -802936063#1 -802936063#2 803044658 -803044659#0 910329299 -448705122#0 -448705122#1 563109702#4 563109702#5 -448705118#6 -448705118#5 -448705118#3"/>
    </person>
    <person id="37" depart="0.04">
        <walk edges="864013683 -179610248#5 -179610248#6 -179610248#7 179610248#8 448713866#5 -448713866#4 -448713866#3 448713866#1 448713866#0 -26628718#9 -26628718#8 392740616#2 392740616#1 392740616#0 -392740613#3 -392740613#2 -392740613#1 -183063123#0 -183063123#1 952901543#1 952901543#2 -183063123#4 394382774#2"/>
    </person>
    <person id="38" depart="0.04">
        <walk edges="-416456942#4 379556015#1 -227626347#3 -227626347#2 -227626347#1 -227626347#0 183895329#0 379555984#1 791458050#2 791458050#1 791458050#0 -351819311#5 -351819311#4 818753440#0 818753440#1 394374381#1 -26600611#2 26600611#3 -26600611#4 26600611#5 -26600611#8 -26600611#9"/>
    </person>
    <person id="39" depart="0.04">
        <walk edges="-227626347#2 -227626347#1 -227626347#0 183895329#0 379555984#1 791458050#2 791458050#1 791458050#0 -351819311#5 -351819311#4 818753440#0 818753440#1 394374381#1 -26600611#2 26600611#3 -26600611#4 26600611#5 -26600611#8 -26600611#9 -26600611#10 914341257#0 914341257#1 914341257#2 914341256#1 914341256#0 -183895293#0 183895293#1 -448710674#0 -448710674#1 -448710674#2 -448710674#3 448710674#4 -448710674#5 908429171#1 908429171#2 -183895293#7 183895293#8 923278831#4 923278831#3 923278831#2 923278831#1 923278831#0 923278829#0 828743230"/>
    </person>
    <person id="40" depart="0.04">
        <walk edges="807801810#0 806701047 816482171#1 816482171#0 803710525#2 816482170#0 816482170#1 816482166#1 37396910#0 -518705243#7 -518705243#8 172670186#6 172670186#5 172670186#4 172670186#3 172670186#1"/>
    </person>
    <person id="41" depart="0.04">
        <walk edges="829085901#1 819103572#2 829085900#0 803623214#5 803623214#6 815169356#1 815169356#0 860888135 860888127#4 860888127#3 860888127#2 860888127#1 860888127#0 815146776#0 818753467#1 818753467#0 787341285 815169354#0 815169354#1 814407836#1 787341286#2 787341286#3 -803623201#3"/>
    </person>
    <person id="42" depart="0.04">
        <walk edges="803623211#1 810622959 810622950#5 816482153#0 518705249#5 -954536929#1 954536930 -172672023#2 -172672023#3 -183895331#4"/>
    </person>
    <person id="43" depart="0.04">
        <walk edges="-37402625#2 -37402625#3 379567147 379567126#4 379567126#5 -183895346#0 -378331049#8 -378331049#7 378331049#6 -183061374#0 -183061374#1 -183061374#2"/>
    </person>
    <person id="44" depart="0.04">
        <walk edges="-448208836#3 815146775 818753465#0 818753465#1 815146776#0 815146776#1 815146776#2 815146776#3 815146776#4 818753468#1 183063999#0 814407838#9 814407838#10 814407838#11 814407838#12 810622956#1 810622932#6 810622949#2 -218975372#10 -218975372#11 560435744#0 393240022#0 393240022#1 379558045#0 379558045#1 379558045#2 379558045#3"/>
    </person>
    <person id="45" depart="0.05">
        <walk edges="818753448 -351823753#4 -351823754#1 518705243#4 518705243#5 518705243#6 -518705243#7 -518705243#8 172670186#6 172670186#5 172670186#4"/>
    </person>
    <person id="47" depart="0.05">
        <walk edges="-379556016#1 394282837 379555982 393642755#7 393642755#6 393642755#5 393642755#4 393642755#2 393642755#1 393642755#0 37401829#1 183895339#3 183895339#2 183895339#1 183895339#0 183521126#4 183895329#0 379555984#1 -379555984#0 807058734#1 807058734#0 -351819311#9 818753442#7 818753442#6 818753442#5 818753442#4 866481322#0 805888799 803710522#2 803710522#1 803710522#0 351823752#5 -351823753#6"/>
    </person>
    <person id="48" depart="0.05">
        <walk edges="818753473#11 944932578#6 944932579#1 944932579#0 944932567 944932565#1 944932565#6 944932565#5 944932568 -448204369#5 392747238#1 392747238#0 332096194#4"/>
    </person>
    <person id="49" depart="0.05">
        <walk edges="807801807#0 807801805#0 807801804#1 807801804#2 828744491#0 435327110#0 -435327108#0 -392750636#2 392750636#0 -351819311#4 -351819311#3 -392752140#0 -392752140#1 -394382781#1 378331046#1 -26600610#1 378331065#0 378331065#1 -793763774#0 -378331042#0 -37401829#5 -37401829#6 -37401829#7 -37401829#8 -37401829#10 -37401829#11 -394282840#8"/>
    </person>
    <person id="50" depart="0.05">
        <walk edges="-953224058#1 -806701041#0 -448710674#5 448710674#4 -448710674#3 -448710674#2 -448710674#1 -448710674#0 183895293#1 -914629934 -337111077#3 172670186#4 -172670186#5 -172670186#6 -518705249#1 -518705249#2 518705249#3 172672023#0 172672023#1 172672023#2 172672023#3 183895331#5 378331040#1 -378331040#2 378331052#6 378331044#2 -378331051#0 -378331077#3 -394282841#0 -394282841#1 -394282840#8 -700433858#0 700433858#1 700433858#2 700433858#3 700433858#4"/>
    </person>
    <person id="51" depart="0.05">
        <walk edges="-378331049#2 -378331049#5 183061374#0 183061374#1 183061374#2 183061374#3 183061374#4 183061374#6 -218975372#10 183895288#1 448204959 810622954#0 804525734#0 804525734#1 804525732#1 804525735#1 803623215#0 803623215#1 803623215#2 803623215#3 803623215#4 803623215#5 803623215#6 819103570 860888129#0 952935039#0 -183065864#7 -448205915#0 -448205915#1 -448205915#2 448205915#3 792411487 -792411485#1 392740612"/>
    </person>
    <person id="52" depart="0.05">
        <walk edges="-183895293#4 -183895293#3 -183895293#2 183895293#1 -914629934 -337111077#3 172670186#4 -172670186#5 -172670186#6 -518705249#1 -518705249#2 -518705249#3 -518705249#4 -518705249#5 -518705249#6 -518705249#7 -518705249#8 -518705249#9 810622960#1 810622960#0 -218975372#3 -218975372#4 -218975372#6 -218975372#7 -218975372#10 -218975372#11 560435744#0 393240022#0 393240022#1 379558045#0 379558045#1 379558045#2 379558045#3 378331049#2"/>
    </person>
    <person id="53" depart="0.05">
        <walk edges="818753472#0 810622954#0 810622954#1 810622952 810622953 810622951#1 810622951#2 810622951#3 810622951#4 944932553#4 864013671#2 818753474 944932567 944932565#1 944932565#6 944932565#5 944932568 -448204369#5 392747238#1 392747238#0 332096194#4 332096194#3 332096194#2 332096194#1 332096194#0 332080701 332080691#3 332080691#4 332080691#6 332080691#8 332080692 -332080693 337111074"/>
    </person>
    <person id="55" depart="0.06">
        <walk edges="877338609#3 803623186#0 803623185 803623184 803623187#0 803623187#1 803623188 803623189 803623181#0 803623180#1 392747236#1 -518705249#7 -518705249#6 -518705249#5 -518705249#4 -518705249#3 -518705249#2 -518705249#1 -518705243#8 -518705243#7 37396910#0 816482166#1 816482173 807058732#2 807058732#1 351823752#15 351823752#13 351823752#12 351823752#11 351823752#10 351823752#9 351823752#8 351823752#7 471735937#0"/>
    </person>
    <person id="56" depart="0.06">
        <walk edges="803623202 -820818754 815146774#2 803736387#1 814407832"/>
    </person>
    <person id="57" depart="0.06">
        <walk edges="860888135 860888134#0 860888134#1 860888133 860888131 860888129#0 860888129#1 952901546#2 952901546#1 952901548#0 392747239#1 392747239#2 952901544#0 944932555#0 944932555#1 -448204369#5 392747238#1 392747238#0 332096194#4 332096194#3 332096194#2 803623211#0 803623211#1 810622959 810622950#6 -332080691#0 -518705249#3 -518705249#2 -518705249#1 -518705243#8 -518705243#7 37396910#0 816482166#1 816482173 807058732#2 807058732#1 26600611#5 -26600611#4 26600611#3 -26600611#2 394374381#1 394374380#1 394374380#0 394374378#0 394374377 394374376 -392750636#3"/>
    </person>
    <person id="58" depart="0.06">
        <walk edges="914341256#2 914341255 26628719#0 26628719#1 -26600611#10 -26600611#9 -26600611#8 26600611#5 -26600611#4 26600611#3 -26600611#2 394374381#1 394374380#1 394374380#0 802936059 828744489 828744488#2 807801803#2 807801803#3 829085911 818753442#6 818753442#7"/>
    </person>
    <person id="59" depart="0.06">
        <walk edges="448205553#9 448205553#8 819103574 860888135 815169349 -183065864#5 -183065864#6 -448205915#0"/>
    </person>
    <person id="60" depart="0.06">
        <walk edges="860888126#0 815146776#8 804525723#2 183895288#4 183895288#2 183895287 -218975372#6 -218975372#4 -218975372#3 -218975372#1 -218975372#0 -183895331#10 -183895331#9 -183895331#8 816482163#10 -378331068#1"/>
    </person>
    <person id="61" depart="0.06">
        <walk edges="332080691#8 332080691#6 332080691#4 332080691#3 332080701 -394382774#0 -394382774#1 -394382774#2 -183063123#4 952901543#2 952901543#1 -337127948#1 -337127948#2 -337127948#3 -792411485#0 -792411485#1 -792411485#2 -792411485#3"/>
    </person>
    <person id="62" depart="0.06">
        <walk edges="810622945#8 810622949#0 183895288#1 448204959 810622954#0 804525734#0 804525734#1 804525732#1 804525735#1 803623215#0 803623215#1 803623215#2 803623215#3 803623215#4 803623215#5 803623215#6 819103570 860888129#0 952935039#0 -183065864#7 -448205915#0 -448205915#1 -448205915#2 448205915#3 792411487 -792411485#1 392740612 -392740613#3 392740616#0 392740616#1 392740616#2 -26628718#8 -26628718#9 448713866#0 448713866#1 -448713866#3 -448713866#4 448713866#5 179610248#8 -179610248#7 -179610248#6 -179610248#5 179610248#4 923278842 -448715681#1"/>
    </person>
    <person id="63" depart="0.06">
        <walk edges="392747239#2 392747239#1 803623190 -183065864#8 -183065864#7 -448205915#0 -815169355#2"/>
    </person>
    <person id="64" depart="0.06">
        <walk edges="-448705118#0 448705118#1 448705118#2 448705118#3 810622937#0 810622937#1 -448705122#1 -448705122#0 910329299 -803044659#1 875533629#0 875533630#1 -26628718#6 -26628718#7 -26628718#8 -26628718#9 448713866#0 448713866#1 -448713866#3 -448713866#4 448713866#5 179610248#8 -179610248#7 -179610248#6 -179610248#5 179610248#4 179610248#3 179610248#2 448715681#0"/>
    </person>
    <person id="65" depart="0.07">
        <walk edges="-26600611#0 26600611#1 -26600611#2 26600611#3 -26600611#4 26600611#5 -26600611#8 -26600611#9 -26600611#10 914341257#0 914341257#1 914341257#2 914341256#1 914341256#0 -183895293#0 183895293#1 -448710674#0 468731303#1 910329303#0 -448710671#1 -448711037#0"/>
    </person>
    <person id="66" depart="0.07">
        <walk edges="923278816#0 802936074#2 802936074#1 810622957 814407838#12 810622956#1 810622932#6 810622949#2 -218975372#10 -218975372#11 560435744#0 393240022#0 393240022#1 379558045#0 379558045#1 379558045#2 416466754"/>
    </person>
    <person id="68" depart="0.07">
        <walk edges="183895293#0 -914629934 -337111077#3 172670186#4 -172670186#5 -172670186#6 -518705249#1 -518705249#2 -518705249#3 -518705249#4 -518705249#5 -518705249#6 -518705249#7 392747236#1 864013671#0 864013671#1 864013671#2 944932553#4 183895297#0 923278818#0 818753473#7 944932588#1 944932588#0 944932588#16"/>
    </person>
    <person id="69" depart="0.07">
        <walk edges="923232049 923232047 392740616#0 -392740613#3 392740612 -792411485#1 792411487 448205915#3 -448205915#2 -448205914#0 -815169355#0 -448205914#3 -183065864#5 815169349 860888135 819103574 448205553#8 804525723#0 804525723#1 804525723#2 183895288#5 814407838#9"/>
    </person>
    <person id="70" depart="0.07">
        <walk edges="803623214#4 803623214#5 803623214#6 819103568 860888133 860888131 860888129#0 860888129#1 952901546#2 952901546#1 952901548#0 392747239#1 392747239#2 952901544#0 944932555#0 944932555#1 -448204369#5 392747238#1 392747238#0 332096194#4 332096194#3 332096194#2 803623211#0 803623211#1 810622959 810622950#6 -332080691#0 -518705249#3 -518705249#2 -518705249#1 -518705243#8 -518705243#7 -518705243#6 -518705243#5 816482174#0"/>
    </person>
    <person id="71" depart="0.07">
        <walk edges="378331062 378331043#2 378331043#1 378331043#0 379557990#5 379557990#4 379557990#3 416466755#1 -218975372#6 -218975372#7 -218975372#10 -218975372#11 560435745 218975374#0 563109702#5 563109702#4 -448705122#1 -448705122#0 910329299 -803044659#1 26628718#4"/>
    </person>
    <person id="72" depart="0.07">
        <walk edges="394282840#6 -394282840#7 -394282840#8 -700433858#0 700433858#1 37400668#0 37400668#1 37400668#2"/>
    </person>
    <person id="73" depart="0.07">
        <walk edges="802936063#1 -448705123#1 -448705123#2 815169353 814407838#0 818753466#1 183065864#0 -183065864#1 -183065864#2 -183065864#3 -183065864#4 -183065864#5 -183065864#6 -183065864#7 -183065864#8 803623190 392747239#1 392747239#2 952901544#0 944932571 944932565#3 944932565#4"/>
    </person>
    <person id="74" depart="0.07">
        <walk edges="806701048#1 -803710524#0 -394374384#5 -351819311#9 818753442#7 818753442#6 818753442#5 818753442#4 805888798 351823752#9 351823752#10 803710521#4 807801812 803710520#3 803710520#2 803710520#1 803710520#0 -351823753#1 -351823753#2 819103563#1 819103562#0"/>
    </person>
    <person id="75" depart="0.08">
        <walk edges="818753442#2 818753442#1 818753442#0 351823752#10 351823752#11 351823752#12 351823752#13 351823752#15 807058732#1 807058732#2 816482173 816482166#1 37396910#0 -518705243#7 -518705243#8 -518705249#1 -518705249#2 -518705249#3 -518705249#4 -518705249#5 -518705249#6 -518705249#7 -518705249#8 -518705249#9 810622960#1 810622961#1 810622962#1 218975372#0 -183895347#0 -183895347#1"/>
    </person>
    <person id="76" depart="0.08">
        <walk edges="183895298#3 -218975374#1 -218975374#0 -910329296#0 810622932#4 810622948#1 810622948#0 802936076#0 802936077"/>
    </person>
    <person id="77" depart="0.08">
        <walk edges="-179610248#8 -179610248#7 -179610248#6 -179610248#5 179610248#4 179610248#3 179610248#2 -179610248#1 -183895293#12 -183895293#11 -183895293#10 -183895293#9 183895293#8 -183895293#7 908429171#2 908429171#1 -448710674#5 448710667 -393235435#1 393235435#0 -183895293#3 -448709662#0 448709662#1"/>
    </person>
    <person id="78" depart="0.08">
        <walk edges="183895293#12 -179610248#1 179610248#2 179610248#3 179610248#4 -179610248#5 -179610248#6 -179610248#7 179610248#8 -179610248#10 448713867#0 332080699#0 332080699#1 -332080699#2 -332080693 332080692 332080691#8 332080691#6 332080691#4 332080691#3 332080691#2 332080691#1 332080691#0 -518705249#4 -518705249#5 -518705249#6 -518705249#7 -518705249#8 -518705249#9 810622960#1 810622961#1 810622962#1 218975372#0 -183895347#0 -183895347#1 183895347#3 183895347#4 -378331043#0"/>
    </person>
    <person id="79" depart="0.08">
        <walk edges="-416457250 416457251#1 -379556014#1 518705243#1 26269734#1 26269734#2 -26269734#3"/>
    </person>
    <person id="80" depart="0.08">
        <walk edges="-227626347#2 379555998#0 -416456942#3 -416456942#2 -416456942#1 -416456942#0 -416456944#0 -416456956#3 379556008 379555997#1 416456957#0"/>
    </person>
    <person id="81" depart="0.08">
        <walk edges="860888132 860888133 860888134#1 860888134#0 815169349 183065864#5"/>
    </person>
    <person id="82" depart="0.08">
        <walk edges="448974661#0 448974659#1 448974659#0 -26628718#6 820818753#6 -820818753#5 -820818753#4 -820818753#3 -820818753#1 -183063999#5 -183063999#3 818753467#1 815146776#1 815146776#2 815146776#3 815146776#4 818753468#1 183063999#0 814407838#9 814407838#10 814407838#11 814407838#12 810622955 183895287 -218975372#6 -416466755#1 -416466755#2 379558047 379558007#7 379558007#8 183895347#7 183895347#8 -379567126#5 -379567126#4 379567147 37402625#3"/>
    </person>
    <person id="83" depart="0.08">
        <walk edges="-518705243#7 -518705243#8 -518705249#1 -518705249#2 -518705249#3 -332080691#0 -332080691#1 332080691#2 332080701 -394382774#0 -394382774#1 -394382774#2 -183063123#4 952901543#2 952901543#1 -183063123#1 -183063123#0 -392740613#7"/>
    </person>
    <person id="84" depart="0.08">
        <walk edges="-337111066 337111066 332080691#6 332080691#4 332080691#3 332080701 332096194#0 332096194#1 332096194#2 332096194#3 332096194#4 392747238#0 392747238#1 -448204369#5 944932568 944932565#5 944932565#6 944932565#1 944932567 944932579#0 944932579#1 944932578#6 818753473#11"/>
    </person>
    <person id="85" depart="0.09">
        <walk edges="448710674#2 -448710674#1 -448710674#0 183895293#1 -914629934"/>
    </person>
    <person id="86" depart="0.09">